@<TRIPOS>MOLECULE
MOL
   31    33     1     0     0
SMALL
bcc


@<TRIPOS>ATOM
      1 CL1        -24.2890     2.8160    64.1370 cl       235 MOL      -0.122400
      2 C01        -24.7320    -3.7830    62.8070 c3       235 MOL      -0.040800
      3 C02        -25.3020    -2.3790    62.8500 ca       235 MOL      -0.100300
      4 C03        -26.5410    -2.1490    63.4270 ca       235 MOL      -0.141000
      5 C04        -27.0660    -0.8560    63.4670 ca       235 MOL      -0.172000
      6 C05        -26.3570     0.2090    62.9260 ca       235 MOL      -0.094000
      7 C06        -25.1140    -0.0250    62.3460 ca       235 MOL      -0.054800
      8 C07        -24.5840    -1.3080    62.3030 ca       235 MOL      -0.063200
      9 N08        -23.3940    -1.2660    61.6940 na       235 MOL      -0.168400
     10 C09        -23.1060    -0.0210    61.3460 cc       235 MOL      -0.029300
     11 C10        -24.1440     0.8340    61.7420 cd       235 MOL      -0.153400
     12 C11        -24.3130     2.3070    61.4880 ca       235 MOL       0.043200
     13 C12        -24.4170     3.2690    62.4720 ca       235 MOL       0.014400
     14 C14        -24.6050     4.5960    62.1390 ca       235 MOL      -0.148000
     15 C15        -24.7140     4.9770    60.8140 ca       235 MOL      -0.150000
     16 C16        -24.6320     4.0210    59.8160 ca       235 MOL      -0.141000
     17 C17        -24.4430     2.6860    60.1590 ca       235 MOL      -0.092000
     18 C18        -21.8270     0.3750    60.6640 c        235 MOL       0.927800
     19 O19        -21.3260     1.5190    60.8200 o        235 MOL      -0.806800
     20 O20        -21.2250    -0.4700    59.9790 o        235 MOL      -0.806800
     21 H011       -23.8670    -3.7700    62.3460 hc       235 MOL       0.032700
     22 H012       -25.3500    -4.3710    62.3250 hc       235 MOL       0.032700
     23 H013       -24.6110    -4.1140    63.7210 hc       235 MOL       0.032700
     24 H031       -27.0460    -2.8920    63.8080 ha       235 MOL       0.108000
     25 H041       -27.9440    -0.7020    63.8650 ha       235 MOL       0.108000
     26 H051       -26.7320     1.1100    62.9430 ha       235 MOL       0.129000
     27 H081       -22.8460    -1.9860    61.5650 hn       235 MOL       0.307700
     28 H141       -24.6610     5.2700    62.8440 ha       235 MOL       0.123000
     29 H151       -24.8430     5.9160    60.5830 ha       235 MOL       0.113000
     30 H161       -24.7040     4.2820    58.8790 ha       235 MOL       0.122000
     31 H171       -24.3840     2.0110    59.4560 ha       235 MOL       0.191000
@<TRIPOS>BOND
     1     1    13 1   
     2     2     3 1   
     3     2    21 1   
     4     2    22 1   
     5     2    23 1   
     6     3     4 ar  
     7     3     8 ar  
     8     4     5 ar  
     9     4    24 1   
    10     5     6 ar  
    11     5    25 1   
    12     6     7 ar  
    13     6    26 1   
    14     7     8 ar  
    15     7    11 1   
    16     8     9 1   
    17     9    10 1   
    18     9    27 1   
    19    10    11 2   
    20    10    18 1   
    21    11    12 1   
    22    12    13 ar  
    23    12    17 ar  
    24    13    14 ar  
    25    14    15 ar  
    26    14    28 1   
    27    15    16 ar  
    28    15    29 1   
    29    16    17 ar  
    30    16    30 1   
    31    17    31 1   
    32    18    19 1   
    33    18    20 1   
@<TRIPOS>SUBSTRUCTURE
     1 MOL         1 TEMP              0 ****  ****    0 ROOT
