MOL
 OpenBabel04132617183D

 34 36  0  0  0  0  0  0  0  0999 V2000
  -24.7320   -3.7830   62.8070 *   0  0  0  0  0  0  0  0  0  0  0  0
  -25.3020   -2.3790   62.8500 Ca  0  0  0  0  0  0  0  0  0  0  0  0
  -26.5410   -2.1490   63.4270 Ca  0  0  0  0  0  0  0  0  0  0  0  0
  -27.0660   -0.8560   63.4670 Ca  0  0  0  0  0  0  0  0  0  0  0  0
  -26.3570    0.2090   62.9260 Ca  0  0  0  0  0  0  0  0  0  0  0  0
  -25.1140   -0.0250   62.3460 Ca  0  0  0  0  0  0  0  0  0  0  0  0
  -24.5840   -1.3080   62.3030 Ca  0  0  0  0  0  0  0  0  0  0  0  0
  -23.3940   -1.2660   61.6940 Na  0  0  0  0  0  0  0  0  0  0  0  0
  -23.1060   -0.0210   61.3460 *   0  0  0  0  0  0  0  0  0  0  0  0
  -24.1440    0.8340   61.7420 Cd  0  0  0  0  0  0  0  0  0  0  0  0
  -24.3130    2.3070   61.4880 Ca  0  0  0  0  0  0  0  0  0  0  0  0
  -24.4170    3.2690   62.4720 Ca  0  0  0  0  0  0  0  0  0  0  0  0
  -24.6050    4.5960   62.1390 Ca  0  0  0  0  0  0  0  0  0  0  0  0
  -24.7140    4.9770   60.8140 Ca  0  0  0  0  0  0  0  0  0  0  0  0
  -24.6320    4.0210   59.8160 Ca  0  0  0  0  0  0  0  0  0  0  0  0
  -24.4430    2.6860   60.1590 Ca  0  0  0  0  0  0  0  0  0  0  0  0
  -21.8270    0.3750   60.6640 C   0  0  0  0  0  0  0  0  0  0  0  0
  -21.3260    1.5190   60.8200 O   0  0  0  0  0  0  0  0  0  0  0  0
  -21.2250   -0.4700   59.9790 O   0  0  0  0  0  0  0  0  0  0  0  0
  -24.3230    2.8590   63.9540 *   0  0  0  0  0  0  0  0  0  0  0  0
  -23.6710    1.9910   64.0500 *   0  0  0  0  0  0  0  0  0  0  0  0
  -24.8640    6.0260   60.5570 *   0  0  0  0  0  0  0  0  0  0  0  0
  -25.3160    2.6120   64.3270 *   0  0  0  0  0  0  0  0  0  0  0  0
  -23.9130    3.6870   64.5330 *   0  0  0  0  0  0  0  0  0  0  0  0
  -23.8670   -3.7700   62.3460 *   0  0  0  0  0  0  0  0  0  0  0  0
  -25.3500   -4.3710   62.3250 *   0  0  0  0  0  0  0  0  0  0  0  0
  -24.6110   -4.1140   63.7210 *   0  0  0  0  0  0  0  0  0  0  0  0
  -27.0460   -2.8920   63.8080 *   0  0  0  0  0  0  0  0  0  0  0  0
  -27.9440   -0.7020   63.8650 *   0  0  0  0  0  0  0  0  0  0  0  0
  -26.7320    1.1100   62.9430 *   0  0  0  0  0  0  0  0  0  0  0  0
  -22.8460   -1.9860   61.5650 *   0  0  0  0  0  0  0  0  0  0  0  0
  -24.6610    5.2700   62.8440 *   0  0  0  0  0  0  0  0  0  0  0  0
  -24.7040    4.2820   58.8790 *   0  0  0  0  0  0  0  0  0  0  0  0
  -24.3840    2.0110   59.4560 *   0  0  0  0  0  0  0  0  0  0  0  0
  1  2  1  0  0  0  0
  1 25  1  0  0  0  0
  1 26  1  0  0  0  0
  1 27  1  0  0  0  0
  2  3  2  0  0  0  0
  2  7  1  0  0  0  0
  3  4  1  0  0  0  0
  3 28  1  0  0  0  0
  4  5  2  0  0  0  0
  4 29  1  0  0  0  0
  5  6  1  0  0  0  0
  5 30  1  0  0  0  0
  6  7  2  0  0  0  0
  6 10  1  0  0  0  0
  7  8  1  0  0  0  0
  8  9  1  0  0  0  0
  8 31  1  0  0  0  0
  9 10  2  0  0  0  0
  9 17  1  0  0  0  0
 10 11  1  0  0  0  0
 11 12  2  0  0  0  0
 11 16  1  0  0  0  0
 12 13  1  0  0  0  0
 12 20  1  0  0  0  0
 13 14  2  0  0  0  0
 13 32  1  0  0  0  0
 14 15  1  0  0  0  0
 14 22  1  0  0  0  0
 15 16  2  0  0  0  0
 15 33  1  0  0  0  0
 16 34  1  0  0  0  0
 17 18  1  0  0  0  0
 17 19  1  0  0  0  0
 20 21  1  0  0  0  0
 20 23  1  0  0  0  0
 20 24  1  0  0  0  0
M  END
$$$$
