/Users/af25016/projects/meze/data/inputs/model_0/ligands/vim2/ligand_11/ligand_11.pdb
 OpenBabel06092616073D

 31 33  0  0  0  0  0  0  0  0999 V2000
  -24.2890    2.8160   64.1370 C   0  0  0  0  0  0  0  0  0  0  0  0
  -24.7320   -3.7830   62.8070 C   0  0  0  0  0  0  0  0  0  0  0  0
  -25.3020   -2.3790   62.8500 C   0  0  0  0  0  0  0  0  0  0  0  0
  -26.5410   -2.1490   63.4270 C   0  0  0  0  0  0  0  0  0  0  0  0
  -27.0660   -0.8560   63.4670 C   0  0  0  0  0  0  0  0  0  0  0  0
  -26.3570    0.2090   62.9260 C   0  0  0  0  0  0  0  0  0  0  0  0
  -25.1140   -0.0250   62.3460 C   0  0  0  0  0  0  0  0  0  0  0  0
  -24.5840   -1.3080   62.3030 C   0  0  0  0  0  0  0  0  0  0  0  0
  -23.3940   -1.2660   61.6940 N   0  0  0  0  0  0  0  0  0  0  0  0
  -23.1060   -0.0210   61.3460 C   0  0  0  0  0  0  0  0  0  0  0  0
  -24.1440    0.8340   61.7420 C   0  0  0  0  0  0  0  0  0  0  0  0
  -24.3130    2.3070   61.4880 C   0  0  0  0  0  0  0  0  0  0  0  0
  -24.4170    3.2690   62.4720 C   0  0  0  0  0  0  0  0  0  0  0  0
  -24.6050    4.5960   62.1390 C   0  0  0  0  0  0  0  0  0  0  0  0
  -24.7140    4.9770   60.8140 C   0  0  0  0  0  0  0  0  0  0  0  0
  -24.6320    4.0210   59.8160 C   0  0  0  0  0  0  0  0  0  0  0  0
  -24.4430    2.6860   60.1590 C   0  0  0  0  0  0  0  0  0  0  0  0
  -21.8270    0.3750   60.6640 C   0  0  0  0  0  0  0  0  0  0  0  0
  -21.3260    1.5190   60.8200 O   0  0  0  0  0  0  0  0  0  0  0  0
  -21.2250   -0.4700   59.9790 O   0  0  0  0  0  0  0  0  0  0  0  0
  -23.8670   -3.7700   62.3460 H   0  0  0  0  0  0  0  0  0  0  0  0
  -25.3500   -4.3710   62.3250 H   0  0  0  0  0  0  0  0  0  0  0  0
  -24.6110   -4.1140   63.7210 H   0  0  0  0  0  0  0  0  0  0  0  0
  -27.0460   -2.8920   63.8080 H   0  0  0  0  0  0  0  0  0  0  0  0
  -27.9440   -0.7020   63.8650 H   0  0  0  0  0  0  0  0  0  0  0  0
  -26.7320    1.1100   62.9430 H   0  0  0  0  0  0  0  0  0  0  0  0
  -22.8460   -1.9860   61.5650 H   0  0  0  0  0  0  0  0  0  0  0  0
  -24.6610    5.2700   62.8440 H   0  0  0  0  0  0  0  0  0  0  0  0
  -24.8430    5.9160   60.5830 H   0  0  0  0  0  0  0  0  0  0  0  0
  -24.7040    4.2820   58.8790 H   0  0  0  0  0  0  0  0  0  0  0  0
  -24.3840    2.0110   59.4560 H   0  0  0  0  0  0  0  0  0  0  0  0
  2  3  1  0  0  0  0
  2 23  1  0  0  0  0
  3  4  1  0  0  0  0
  4  5  2  0  0  0  0
  4 24  1  0  0  0  0
  5 25  1  0  0  0  0
  6 26  1  0  0  0  0
  6  5  1  0  0  0  0
  7  6  2  0  0  0  0
  8  7  1  0  0  0  0
  8  3  2  0  0  0  0
  9  8  1  0  0  0  0
 10  9  1  0  0  0  0
 10 11  2  0  0  0  0
 11  7  1  0  0  0  0
 12 11  1  0  0  0  0
 12 13  1  0  0  0  0
 13  1  1  0  0  0  0
 14 13  2  0  0  0  0
 14 28  1  0  0  0  0
 15 14  1  0  0  0  0
 16 17  1  0  0  0  0
 16 15  2  0  0  0  0
 17 12  2  0  0  0  0
 18 19  1  0  0  0  0
 18 10  1  0  0  0  0
 20 18  2  0  0  0  0
 21  2  1  0  0  0  0
 22  2  1  0  0  0  0
 27  9  1  0  0  0  0
 29 15  1  0  0  0  0
 30 16  1  0  0  0  0
 31 17  1  0  0  0  0
M  END
$$$$
